 PDE 2017  9  8  4 49 21.40  15.0700  -93.7100  69.7 0.0 8.1 NEAR COAST OF CHIAPAS, M                
event name:     201709080449A  
time shift:      0.0000
half duration:  31.0000
latitude:       15.34000
longitude:     -94.62000
depth:          50.0000
Mrr:      -1.090000e+28
Mtt:       3.460000e+27
Mpp:       7.460001e+27
Mrt:       1.530000e+28
Mrp:      -1.820000e+28
Mtp:      -6.610000e+27
